Circuit: * /Volumes/GoogleDrive/My Drive/D/Documents/2019/EEE4022S/wrist-zapper/simulation/stim/stim_controller_v7.1.asc

Direct Newton iteration for .op point succeeded.

Date: Tue Oct 15 12:57:06 2019
Total elapsed time: 1.220 seconds.

tnom = 27
temp = 27
method = modified trap
totiter = 2096
traniter = 2082
tranpoints = 1042
accept = 1042
rejected = 0
matrix size = 22
fillins = 6
solver = Normal
Matrix Compiler1: 1836 object code size  0.5/0.5/[0.1]
Matrix Compiler2: off

